* SPICE netlist generated by Yosys 0.51 (git sha1 c4b519022, g++ 13.3.0-6ubuntu2~24.04 -fPIC -O3)

.SUBCKT spi reset cs sclk din dout dout_en ctrl0.0 ctrl0.1 ctrl0.2 ctrl0.3 ctrl0.4 ctrl0.5 ctrl0.6 ctrl0.7 ctrl1.0 ctrl1.1 ctrl1.2 ctrl1.3 ctrl1.4 ctrl1.5 ctrl1.6 ctrl1.7 ctrl2.0 ctrl2.1 ctrl2.2 ctrl2.3 ctrl2.4 ctrl2.5 ctrl2.6 ctrl2.7 stat0.0 stat0.1 stat0.2 stat0.3 stat0.4 stat0.5 stat0.6 stat0.7
X0 dout tx_proc.v_tx_bits_d1.0 BUF
X1 tx_proc.v_tx_bits_d1.7 tx_bits_d1.7 BUF
X2 tx_proc.v_tx_bits_d1.6 tx_bits_d1.6 BUF
X3 tx_proc.v_tx_bits_d1.5 tx_bits_d1.5 BUF
X4 tx_proc.v_tx_bits_d1.4 tx_bits_d1.4 BUF
X5 tx_proc.v_tx_bits_d1.3 tx_bits_d1.3 BUF
X6 tx_proc.v_tx_bits_d1.2 tx_bits_d1.2 BUF
X7 tx_proc.v_tx_bits_d1.1 tx_bits_d1.1 BUF
X8 dout tx_bits_d1.0 BUF
X9 i_ctrl2.7 ctrl2.7 BUF
X10 i_ctrl2.6 ctrl2.6 BUF
X11 i_ctrl2.5 ctrl2.5 BUF
X12 i_ctrl2.4 ctrl2.4 BUF
X13 i_ctrl2.3 ctrl2.3 BUF
X14 i_ctrl2.2 ctrl2.2 BUF
X15 i_ctrl2.1 ctrl2.1 BUF
X16 i_ctrl2.0 ctrl2.0 BUF
X17 i_ctrl1.7 ctrl1.7 BUF
X18 i_ctrl1.6 ctrl1.6 BUF
X19 i_ctrl1.5 ctrl1.5 BUF
X20 i_ctrl1.4 ctrl1.4 BUF
X21 i_ctrl1.3 ctrl1.3 BUF
X22 i_ctrl1.2 ctrl1.2 BUF
X23 i_ctrl1.1 ctrl1.1 BUF
X24 i_ctrl1.0 ctrl1.0 BUF
X25 i_ctrl0.7 ctrl0.7 BUF
X26 i_ctrl0.6 ctrl0.6 BUF
X27 i_ctrl0.5 ctrl0.5 BUF
X28 i_ctrl0.4 ctrl0.4 BUF
X29 i_ctrl0.3 ctrl0.3 BUF
X30 i_ctrl0.2 ctrl0.2 BUF
X31 i_ctrl0.1 ctrl0.1 BUF
X32 i_ctrl0.0 ctrl0.0 BUF
X33 cs 1 NOT
X34 i_dout_en 2 NOT
X35 re_cnt.3 3 NOT
X36 re_cnt.2 4 NOT
X37 re_cnt.1 5 NOT
X38 re_cnt.0 6 NOT
X39 sclk 7 NOT
X40 i_ctrl0.0 8 NOT
X41 i_ctrl0.1 9 NOT
X42 i_ctrl0.2 10 NOT
X43 i_ctrl0.3 11 NOT
X44 i_ctrl0.4 12 NOT
X45 i_ctrl0.5 13 NOT
X46 i_ctrl0.6 14 NOT
X47 i_ctrl0.7 15 NOT
X48 rx_addr.0 16 NOT
X49 rx_addr.1 17 NOT
X50 i_ctrl2.0 18 NOT
X51 i_ctrl2.1 19 NOT
X52 i_ctrl2.2 20 NOT
X53 i_ctrl2.3 21 NOT
X54 i_ctrl2.4 22 NOT
X55 i_ctrl2.5 23 NOT
X56 i_ctrl2.6 24 NOT
X57 i_ctrl2.7 25 NOT
X58 i_ctrl1.0 26 NOT
X59 i_ctrl1.1 27 NOT
X60 i_ctrl1.2 28 NOT
X61 i_ctrl1.3 29 NOT
X62 i_ctrl1.4 30 NOT
X63 i_ctrl1.5 31 NOT
X64 i_ctrl1.6 32 NOT
X65 i_ctrl1.7 33 NOT
X66 reset 34 NOT
X67 stat0.0 35 NOT
X68 stat0.1 36 NOT
X69 stat0.2 37 NOT
X70 stat0.3 38 NOT
X71 stat0.4 39 NOT
X72 stat0.5 40 NOT
X73 stat0.6 41 NOT
X74 stat0.7 42 NOT
X75 re_cnt.1 re_cnt.0 43 NOR
X76 43 44 NOT
X77 re_cnt.3 4 45 NOR
X78 43 45 46 NAND
X79 46 47 NOT
X80 2 46 48 NAND
X81 5 6 49 NOR
X82 re_cnt.1 re_cnt.0 50 NAND
X83 re_cnt.3 re_cnt.2 51 NOR
X84 4 49 52 NAND
X85 re_cnt.3 52 53 NOR
X86 49 51 54 NAND
X87 47 53 55 NOR
X88 46 54 56 NAND
X89 rx_addr.0 rx_addr.2 57 NOR
X90 rx_addr.1 57 58 NAND
X91 58 59 NOT
X92 33 58 60 NOR
X93 16 rx_addr.2 61 NOR
X94 rx_addr.1 61 62 NAND
X95 62 63 NOT
X96 25 62 64 NOR
X97 60 64 65 NOR
X98 17 61 66 NAND
X99 66 67 NOT
X100 15 66 68 NOR
X101 17 57 69 NAND
X102 42 69 70 NOR
X103 68 70 71 NOR
X104 65 71 72 NAND
X105 56 72 73 NAND
X106 tx_bits_d0.7 55 74 NAND
X107 73 74 75 NAND
X108 32 58 76 NOR
X109 24 62 77 NOR
X110 76 77 78 NOR
X111 14 66 79 NOR
X112 41 69 80 NOR
X113 79 80 81 NOR
X114 78 81 82 NAND
X115 56 82 83 NAND
X116 tx_bits_d0.6 55 84 NAND
X117 83 84 85 NAND
X118 31 58 86 NOR
X119 23 62 87 NOR
X120 86 87 88 NOR
X121 13 66 89 NOR
X122 40 69 90 NOR
X123 89 90 91 NOR
X124 88 91 92 NAND
X125 56 92 93 NAND
X126 tx_bits_d0.5 55 94 NAND
X127 93 94 95 NAND
X128 30 58 96 NOR
X129 22 62 97 NOR
X130 96 97 98 NOR
X131 12 66 99 NOR
X132 39 69 100 NOR
X133 99 100 101 NOR
X134 98 101 102 NAND
X135 56 102 103 NAND
X136 tx_bits_d0.4 55 104 NAND
X137 103 104 105 NAND
X138 29 58 106 NOR
X139 21 62 107 NOR
X140 106 107 108 NOR
X141 11 66 109 NOR
X142 38 69 110 NOR
X143 109 110 111 NOR
X144 108 111 112 NAND
X145 56 112 113 NAND
X146 tx_bits_d0.3 55 114 NAND
X147 113 114 115 NAND
X148 28 58 116 NOR
X149 20 62 117 NOR
X150 116 117 118 NOR
X151 10 66 119 NOR
X152 37 69 120 NOR
X153 119 120 121 NOR
X154 118 121 122 NAND
X155 56 122 123 NAND
X156 tx_bits_d0.2 55 124 NAND
X157 123 124 125 NAND
X158 27 58 126 NOR
X159 19 62 127 NOR
X160 126 127 128 NOR
X161 9 66 129 NOR
X162 36 69 130 NOR
X163 129 130 131 NOR
X164 128 131 132 NAND
X165 56 132 133 NAND
X166 tx_bits_d0.1 55 134 NAND
X167 133 134 135 NAND
X168 26 58 136 NOR
X169 18 62 137 NOR
X170 136 137 138 NOR
X171 8 66 139 NOR
X172 35 69 140 NOR
X173 139 140 141 NOR
X174 138 141 142 NAND
X175 56 142 143 NAND
X176 tx_bits_d0.0 55 144 NAND
X177 143 144 145 NAND
X178 re_cnt.3 re_cnt.2 146 NAND
X179 50 146 147 NOR
X180 3 50 148 NAND
X181 54 148 149 NAND
X182 147 149 150 NOR
X183 re_cnt.2 50 151 NAND
X184 52 151 152 NAND
X185 re_cnt.1 146 153 NOR
X186 153 154 NOT
X187 44 50 155 NAND
X188 153 155 156 NOR
X189 re_cnt.0 154 157 NAND
X190 tx_bits_d0.7 56 158 NAND
X191 158 159 NOT
X192 re_cnt.3 rx_op 160 NAND
X193 3 52 161 NOR
X194 52 160 162 NOR
X195 rx_op 161 163 NAND
X196 66 163 164 NOR
X197 67 162 165 NAND
X198 rx_tmp.2 164 166 NAND
X199 i_ctrl0.0 165 167 NAND
X200 166 167 168 NAND
X201 rx_tmp.3 164 169 NAND
X202 i_ctrl0.1 165 170 NAND
X203 169 170 171 NAND
X204 rx_tmp.4 164 172 NAND
X205 i_ctrl0.2 165 173 NAND
X206 172 173 174 NAND
X207 rx_tmp.5 164 175 NAND
X208 i_ctrl0.3 165 176 NAND
X209 175 176 177 NAND
X210 rx_tmp.6 164 178 NAND
X211 i_ctrl0.4 165 179 NAND
X212 178 179 180 NAND
X213 rx_tmp.7 164 181 NAND
X214 i_ctrl0.5 165 182 NAND
X215 181 182 183 NAND
X216 rx_tmp.8 164 184 NAND
X217 i_ctrl0.6 165 185 NAND
X218 184 185 186 NAND
X219 din 164 187 NAND
X220 i_ctrl0.7 165 188 NAND
X221 187 188 189 NAND
X222 re_cnt.1 6 190 NAND
X223 reset 190 191 NOR
X224 re_cnt.1 34 192 NAND
X225 6 51 193 NAND
X226 192 193 194 NOR
X227 51 191 195 NAND
X228 rx_addr.0 194 196 NOR
X229 rx_tmp.7 195 197 NOR
X230 196 197 198 NOR
X231 rx_addr.1 194 199 NOR
X232 rx_tmp.8 195 200 NOR
X233 199 200 201 NOR
X234 rx_addr.2 194 202 NOR
X235 din 195 203 NOR
X236 202 203 204 NOR
X237 62 163 205 NOR
X238 63 162 206 NAND
X239 rx_tmp.2 205 207 NAND
X240 i_ctrl2.0 206 208 NAND
X241 207 208 209 NAND
X242 rx_tmp.3 205 210 NAND
X243 i_ctrl2.1 206 211 NAND
X244 210 211 212 NAND
X245 rx_tmp.4 205 213 NAND
X246 i_ctrl2.2 206 214 NAND
X247 213 214 215 NAND
X248 rx_tmp.5 205 216 NAND
X249 i_ctrl2.3 206 217 NAND
X250 216 217 218 NAND
X251 rx_tmp.6 205 219 NAND
X252 i_ctrl2.4 206 220 NAND
X253 219 220 221 NAND
X254 rx_tmp.7 205 222 NAND
X255 i_ctrl2.5 206 223 NAND
X256 222 223 224 NAND
X257 rx_tmp.8 205 225 NAND
X258 i_ctrl2.6 206 226 NAND
X259 225 226 227 NAND
X260 din 205 228 NAND
X261 i_ctrl2.7 206 229 NAND
X262 228 229 230 NAND
X263 58 163 231 NOR
X264 59 162 232 NAND
X265 rx_tmp.2 231 233 NAND
X266 i_ctrl1.0 232 234 NAND
X267 233 234 235 NAND
X268 rx_tmp.3 231 236 NAND
X269 i_ctrl1.1 232 237 NAND
X270 236 237 238 NAND
X271 rx_tmp.4 231 239 NAND
X272 i_ctrl1.2 232 240 NAND
X273 239 240 241 NAND
X274 rx_tmp.5 231 242 NAND
X275 i_ctrl1.3 232 243 NAND
X276 242 243 244 NAND
X277 rx_tmp.6 231 245 NAND
X278 i_ctrl1.4 232 246 NAND
X279 245 246 247 NAND
X280 rx_tmp.7 231 248 NAND
X281 i_ctrl1.5 232 249 NAND
X282 248 249 250 NAND
X283 rx_tmp.8 231 251 NAND
X284 i_ctrl1.6 232 252 NAND
X285 251 252 253 NAND
X286 din 231 254 NAND
X287 i_ctrl1.7 232 255 NAND
X288 254 255 256 NAND
X289 reset 54 257 NOR
X290 34 53 258 NAND
X291 din 257 259 NAND
X292 rx_op 258 260 NAND
X293 259 260 261 NAND
X294 rx_tmp.2 reset 262 NAND
X295 rx_tmp.3 34 263 NAND
X296 262 263 264 NAND
X297 rx_tmp.3 reset 265 NAND
X298 rx_tmp.4 34 266 NAND
X299 265 266 267 NAND
X300 rx_tmp.4 reset 268 NAND
X301 rx_tmp.5 34 269 NAND
X302 268 269 270 NAND
X303 rx_tmp.5 reset 271 NAND
X304 rx_tmp.6 34 272 NAND
X305 271 272 273 NAND
X306 rx_tmp.6 reset 274 NAND
X307 rx_tmp.7 34 275 NAND
X308 274 275 276 NAND
X309 rx_tmp.7 reset 277 NAND
X310 rx_tmp.8 34 278 NAND
X311 277 278 279 NAND
X312 rx_tmp.8 reset 280 NAND
X313 din 34 281 NAND
X314 280 281 282 NAND
X315 cs i_dout_en 283 NAND
X316 283 dout_en NOT
X317 tx_proc.v_tx_bits_d1.1 55 284 NAND
X318 tx_bits_d0.0 56 285 NAND
X319 284 285 286.0 NAND
X320 tx_proc.v_tx_bits_d1.2 55 287 NAND
X321 tx_bits_d0.1 56 288 NAND
X322 287 288 286.1 NAND
X323 tx_proc.v_tx_bits_d1.3 55 289 NAND
X324 tx_bits_d0.2 56 290 NAND
X325 289 290 286.2 NAND
X326 tx_proc.v_tx_bits_d1.4 55 291 NAND
X327 tx_bits_d0.3 56 292 NAND
X328 291 292 286.3 NAND
X329 tx_proc.v_tx_bits_d1.5 55 293 NAND
X330 tx_bits_d0.4 56 294 NAND
X331 293 294 286.4 NAND
X332 tx_proc.v_tx_bits_d1.6 55 295 NAND
X333 tx_bits_d0.5 56 296 NAND
X334 295 296 286.5 NAND
X335 tx_proc.v_tx_bits_d1.7 55 297 NAND
X336 tx_bits_d0.6 56 298 NAND
X337 297 298 286.6 NAND
X338 cs 299 NOT
X339 cs 300 NOT
X340 cs 301 NOT
X341 cs 302 NOT
X342 sclk 303 NOT
X343 sclk 304 NOT
X344 sclk 305 NOT
X345 sclk 306 NOT
X346 sclk 307 NOT
X347 sclk 308 NOT
X348 sclk 309 NOT
X349 sclk 310 NOT
X350 sclk 311 NOT
X351 sclk 312 NOT
X352 sclk 313 NOT
X353 sclk 314 NOT
X354 sclk 315 NOT
X355 sclk 316 NOT
X356 sclk 317 NOT
X357 sclk 318 NOT
X358 7 159 tx_proc.v_tx_bits_d1.7 DFF
X359 sclk 157 re_cnt.0 DIGITAL_LOW 299 DFFSR
X360 sclk 156 re_cnt.1 DIGITAL_LOW 300 DFFSR
X361 sclk 152 re_cnt.2 DIGITAL_LOW 301 DFFSR
X362 sclk 150 re_cnt.3 DIGITAL_LOW 302 DFFSR
X363 303 286.0 dout DFF
X364 304 286.1 tx_proc.v_tx_bits_d1.1 DFF
X365 305 286.2 tx_proc.v_tx_bits_d1.2 DFF
X366 306 286.3 tx_proc.v_tx_bits_d1.3 DFF
X367 307 286.4 tx_proc.v_tx_bits_d1.4 DFF
X368 308 286.5 tx_proc.v_tx_bits_d1.5 DFF
X369 309 286.6 tx_proc.v_tx_bits_d1.6 DFF
X370 sclk 168 i_ctrl0.0 DIGITAL_LOW reset DFFSR
X371 sclk 171 i_ctrl0.1 DIGITAL_LOW reset DFFSR
X372 sclk 174 i_ctrl0.2 DIGITAL_LOW reset DFFSR
X373 sclk 177 i_ctrl0.3 DIGITAL_LOW reset DFFSR
X374 sclk 180 i_ctrl0.4 DIGITAL_LOW reset DFFSR
X375 sclk 183 i_ctrl0.5 DIGITAL_LOW reset DFFSR
X376 sclk 186 i_ctrl0.6 DIGITAL_LOW reset DFFSR
X377 sclk 189 i_ctrl0.7 DIGITAL_LOW reset DFFSR
X378 sclk 198 rx_addr.0 DFF
X379 sclk 201 rx_addr.1 DFF
X380 sclk 204 rx_addr.2 DFF
X381 310 145 tx_bits_d0.0 DFF
X382 311 135 tx_bits_d0.1 DFF
X383 312 125 tx_bits_d0.2 DFF
X384 313 115 tx_bits_d0.3 DFF
X385 314 105 tx_bits_d0.4 DFF
X386 315 95 tx_bits_d0.5 DFF
X387 316 85 tx_bits_d0.6 DFF
X388 317 75 tx_bits_d0.7 DFF
X389 318 48 i_dout_en DIGITAL_LOW 1 DFFSR
X390 sclk 209 i_ctrl2.0 DIGITAL_LOW reset DFFSR
X391 sclk 212 i_ctrl2.1 DIGITAL_LOW reset DFFSR
X392 sclk 215 i_ctrl2.2 DIGITAL_LOW reset DFFSR
X393 sclk 218 i_ctrl2.3 DIGITAL_LOW reset DFFSR
X394 sclk 221 i_ctrl2.4 DIGITAL_LOW reset DFFSR
X395 sclk 224 i_ctrl2.5 DIGITAL_LOW reset DFFSR
X396 sclk 227 i_ctrl2.6 DIGITAL_LOW reset DFFSR
X397 sclk 230 i_ctrl2.7 DIGITAL_LOW reset DFFSR
X398 sclk 235 i_ctrl1.0 DIGITAL_LOW reset DFFSR
X399 sclk 238 i_ctrl1.1 DIGITAL_LOW reset DFFSR
X400 sclk 241 i_ctrl1.2 DIGITAL_LOW reset DFFSR
X401 sclk 244 i_ctrl1.3 DIGITAL_LOW reset DFFSR
X402 sclk 247 i_ctrl1.4 DIGITAL_LOW reset DFFSR
X403 sclk 250 i_ctrl1.5 DIGITAL_LOW reset DFFSR
X404 sclk 253 i_ctrl1.6 DIGITAL_LOW reset DFFSR
X405 sclk 256 i_ctrl1.7 DIGITAL_LOW reset DFFSR
X406 sclk 261 rx_op DFF
X407 sclk 264 rx_tmp.2 DFF
X408 sclk 267 rx_tmp.3 DFF
X409 sclk 270 rx_tmp.4 DFF
X410 sclk 273 rx_tmp.5 DFF
X411 sclk 276 rx_tmp.6 DFF
X412 sclk 279 rx_tmp.7 DFF
X413 sclk 282 rx_tmp.8 DFF
.ENDS spi

************************
* end of SPICE netlist *
************************

